Version 4
SHEET 1 3736 964
WIRE 496 -400 -208 -400
WIRE -208 -208 -208 -400
WIRE 496 -176 496 -400
WIRE 496 -176 144 -176
WIRE 816 -176 496 -176
WIRE 144 -32 144 -96
WIRE 144 -32 48 -32
WIRE 816 -32 816 -96
WIRE 928 -32 816 -32
WIRE 144 32 144 -32
WIRE 816 32 816 -32
WIRE 496 112 144 112
WIRE 816 112 496 112
WIRE -208 256 -208 -128
WIRE 496 256 496 112
WIRE 496 256 -208 256
WIRE 48 448 48 -32
WIRE 288 448 48 448
WIRE 928 448 928 -32
WIRE 928 448 720 448
WIRE 2912 480 2896 480
WIRE 3024 480 2992 480
WIRE 2768 512 2736 512
WIRE 2896 512 2896 480
WIRE 2896 512 2848 512
WIRE 896 544 752 544
WIRE 2736 544 2736 512
WIRE 1456 560 1376 560
WIRE 1616 560 1536 560
WIRE 1024 576 960 576
WIRE 3360 576 3056 576
WIRE 752 592 752 544
WIRE 784 592 752 592
WIRE 1200 592 1088 592
WIRE 2896 592 2896 512
WIRE 2928 592 2896 592
WIRE 896 608 896 544
WIRE 896 608 848 608
WIRE 1024 608 896 608
WIRE 3024 608 3024 480
WIRE 3024 608 2992 608
WIRE 3040 608 3024 608
WIRE 3056 608 3056 576
WIRE 3056 608 3040 608
WIRE 720 624 720 448
WIRE 784 624 720 624
WIRE 2432 624 2416 624
WIRE 2576 624 2512 624
WIRE 2640 624 2576 624
WIRE 2864 624 2720 624
WIRE 2928 624 2864 624
WIRE 1616 640 1616 560
WIRE 2416 640 2416 624
WIRE 2416 640 1616 640
WIRE 2576 656 2576 624
WIRE 2864 656 2864 624
WIRE 960 688 960 576
WIRE 1088 688 960 688
WIRE 1200 688 1200 592
WIRE 1200 688 1168 688
WIRE 1232 688 1200 688
WIRE 1376 688 1376 560
WIRE 1376 688 1312 688
WIRE 1408 688 1376 688
WIRE 960 704 960 688
WIRE 1616 704 1616 640
WIRE 1616 704 1472 704
WIRE 1408 720 1344 720
WIRE 2576 768 2576 720
WIRE 3040 768 3040 608
WIRE 3040 768 2576 768
WIRE 960 800 960 784
WIRE 1088 800 960 800
WIRE 1200 800 1168 800
WIRE 1232 800 1200 800
WIRE 1344 800 1344 720
WIRE 1344 800 1312 800
WIRE 704 832 544 832
WIRE 1344 832 1344 800
WIRE 960 864 960 800
WIRE 1024 864 960 864
WIRE 544 880 544 832
WIRE 576 880 544 880
WIRE 1200 880 1200 800
WIRE 1200 880 1088 880
WIRE 704 896 704 832
WIRE 704 896 640 896
WIRE 1024 896 704 896
WIRE 288 912 288 448
WIRE 576 912 288 912
WIRE 1344 944 1344 912
FLAG 1344 944 0
FLAG 2864 720 0
FLAG 2736 544 0
SYMBOL OpAmps\\opamp 1056 816 R0
SYMATTR InstName U1
SYMBOL OpAmps\\opamp 1056 528 R0
SYMATTR InstName U3
SYMBOL res 944 688 R0
SYMATTR InstName R7
SYMATTR Value 470 Ohm
SYMBOL res 1184 672 R90
WINDOW 0 0 56 VBottom 2
WINDOW 3 32 56 VTop 2
SYMATTR InstName R8
SYMATTR Value 5,64kOhm
SYMBOL res 1184 784 R90
WINDOW 0 0 56 VBottom 2
WINDOW 3 32 56 VTop 2
SYMATTR InstName R9
SYMATTR Value 5,64kOhm
SYMBOL res 1328 672 R90
WINDOW 0 0 56 VBottom 2
WINDOW 3 32 56 VTop 2
SYMATTR InstName R10
SYMATTR Value 2,2 kOhm
SYMBOL OpAmps\\opamp 1440 640 R0
SYMATTR InstName U2
SYMBOL res 1328 784 R90
WINDOW 0 0 56 VBottom 2
WINDOW 3 32 56 VTop 2
SYMATTR InstName R11
SYMATTR Value 2,2 kOhm
SYMBOL res 1328 816 R0
SYMATTR InstName R12
SYMATTR Value 11 kOhm
SYMBOL res 1552 544 R90
WINDOW 0 0 56 VBottom 2
WINDOW 3 32 56 VTop 2
SYMATTR InstName R13
SYMATTR Value 11 kOhm
SYMBOL OpAmps\\opamp 816 544 R0
SYMATTR InstName U4
SYMBOL OpAmps\\opamp 608 832 R0
SYMATTR InstName U5
SYMBOL OpAmps\\opamp 2960 544 R0
SYMATTR InstName U7
SYMBOL ADC\\AD4000 3632 576 R0
SYMATTR InstName U8
SYMBOL res 128 -192 R0
SYMATTR InstName R1
SYMBOL res 128 16 R0
SYMATTR InstName R2
SYMBOL res 800 -192 R0
SYMATTR InstName R3
SYMBOL res 800 16 R0
SYMATTR InstName R4
SYMBOL voltage -208 -224 R0
SYMATTR InstName V1
SYMBOL res 2736 608 R90
WINDOW 0 0 56 VBottom 2
WINDOW 3 32 56 VTop 2
SYMATTR InstName R6
SYMATTR Value 26,5 kOhm
SYMBOL res 2528 608 R90
WINDOW 0 0 56 VBottom 2
WINDOW 3 32 56 VTop 2
SYMATTR InstName R14
SYMATTR Value 26,5 kOhm
SYMBOL cap 2560 656 R0
SYMATTR InstName C1
SYMATTR Value 12 nF
SYMBOL cap 2848 656 R0
SYMATTR InstName C2
SYMATTR Value 12 nF
SYMBOL res 2864 496 R90
WINDOW 0 0 56 VBottom 2
WINDOW 3 32 56 VTop 2
SYMATTR InstName R5
SYMATTR Value 4,7 kOhm
SYMBOL res 3008 464 R90
WINDOW 0 0 56 VBottom 2
WINDOW 3 32 56 VTop 2
SYMATTR InstName R15
SYMATTR Value 4,7 kOhm
